
---------- Begin Simulation Statistics ----------
<<<<<<< Updated upstream
sim_seconds                                  0.001514                       # Number of seconds simulated
sim_ticks                                  1513896500                       # Number of ticks simulated
final_tick                                 1513896500                       # Number of ticks from beginning of simulation (restored from checkpoints and never reset)
sim_freq                                 1000000000000                       # Frequency of simulated ticks
host_inst_rate                                 320846                       # Simulator instruction rate (inst/s)
host_op_rate                                   320846                       # Simulator op (including micro ops) rate (op/s)
host_tick_rate                               76299572                       # Simulator tick rate (ticks/s)
host_mem_usage                                 747052                       # Number of bytes of host memory used
host_seconds                                    19.84                       # Real time elapsed on the host
sim_insts                                     6366050                       # Number of instructions simulated
sim_ops                                       6366050                       # Number of ops (including micro ops) simulated
system.physmem.bytes_read::cpu.inst             34112                       # Number of bytes read from this memory
system.physmem.bytes_read::cpu.data            497792                       # Number of bytes read from this memory
system.physmem.bytes_read::total               531904                       # Number of bytes read from this memory
system.physmem.bytes_inst_read::cpu.inst        34112                       # Number of instructions bytes read from this memory
system.physmem.bytes_inst_read::total           34112                       # Number of instructions bytes read from this memory
system.physmem.bytes_written::writebacks       150464                       # Number of bytes written to this memory
system.physmem.bytes_written::total            150464                       # Number of bytes written to this memory
system.physmem.num_reads::cpu.inst                533                       # Number of read requests responded to by this memory
system.physmem.num_reads::cpu.data               7778                       # Number of read requests responded to by this memory
system.physmem.num_reads::total                  8311                       # Number of read requests responded to by this memory
system.physmem.num_writes::writebacks            2351                       # Number of write requests responded to by this memory
system.physmem.num_writes::total                 2351                       # Number of write requests responded to by this memory
system.physmem.bw_read::cpu.inst             22532584                       # Total read bandwidth from this memory (bytes/s)
system.physmem.bw_read::cpu.data            328815081                       # Total read bandwidth from this memory (bytes/s)
system.physmem.bw_read::total               351347665                       # Total read bandwidth from this memory (bytes/s)
system.physmem.bw_inst_read::cpu.inst        22532584                       # Instruction read bandwidth from this memory (bytes/s)
system.physmem.bw_inst_read::total           22532584                       # Instruction read bandwidth from this memory (bytes/s)
system.physmem.bw_write::writebacks          99388565                       # Write bandwidth from this memory (bytes/s)
system.physmem.bw_write::total               99388565                       # Write bandwidth from this memory (bytes/s)
system.physmem.bw_total::writebacks          99388565                       # Total bandwidth to/from this memory (bytes/s)
system.physmem.bw_total::cpu.inst            22532584                       # Total bandwidth to/from this memory (bytes/s)
system.physmem.bw_total::cpu.data           328815081                       # Total bandwidth to/from this memory (bytes/s)
system.physmem.bw_total::total              450736229                       # Total bandwidth to/from this memory (bytes/s)
system.l2.replacements                           2381                       # number of replacements
system.l2.tagsinuse                       4068.673087                       # Cycle average of tags in use
system.l2.total_refs                             1488                       # Total number of references to valid blocks.
system.l2.sampled_refs                           8177                       # Sample count of references to valid blocks.
system.l2.avg_refs                           0.181974                       # Average number of references to valid blocks.
system.l2.warmup_cycle                              0                       # Cycle when the warmup percentage was hit.
system.l2.occ_blocks::writebacks          1667.352433                       # Average occupied blocks per requestor
system.l2.occ_blocks::cpu.inst             492.474708                       # Average occupied blocks per requestor
system.l2.occ_blocks::cpu.data            1908.845947                       # Average occupied blocks per requestor
system.l2.occ_percent::writebacks            0.101767                       # Average percentage of cache occupancy
system.l2.occ_percent::cpu.inst              0.030058                       # Average percentage of cache occupancy
system.l2.occ_percent::cpu.data              0.116507                       # Average percentage of cache occupancy
system.l2.occ_percent::total                 0.248332                       # Average percentage of cache occupancy
system.l2.ReadReq_hits::cpu.inst                   87                       # number of ReadReq hits
system.l2.ReadReq_hits::cpu.data                 1026                       # number of ReadReq hits
system.l2.ReadReq_hits::total                    1113                       # number of ReadReq hits
system.l2.Writeback_hits::writebacks             5804                       # number of Writeback hits
system.l2.Writeback_hits::total                  5804                       # number of Writeback hits
system.l2.ReadExReq_hits::cpu.data                481                       # number of ReadExReq hits
system.l2.ReadExReq_hits::total                   481                       # number of ReadExReq hits
system.l2.demand_hits::cpu.inst                    87                       # number of demand (read+write) hits
system.l2.demand_hits::cpu.data                  1507                       # number of demand (read+write) hits
system.l2.demand_hits::total                     1594                       # number of demand (read+write) hits
system.l2.overall_hits::cpu.inst                   87                       # number of overall hits
system.l2.overall_hits::cpu.data                 1507                       # number of overall hits
system.l2.overall_hits::total                    1594                       # number of overall hits
system.l2.ReadReq_misses::cpu.inst                533                       # number of ReadReq misses
system.l2.ReadReq_misses::cpu.data               2886                       # number of ReadReq misses
system.l2.ReadReq_misses::total                  3419                       # number of ReadReq misses
system.l2.ReadExReq_misses::cpu.data             4892                       # number of ReadExReq misses
system.l2.ReadExReq_misses::total                4892                       # number of ReadExReq misses
system.l2.demand_misses::cpu.inst                 533                       # number of demand (read+write) misses
system.l2.demand_misses::cpu.data                7778                       # number of demand (read+write) misses
system.l2.demand_misses::total                   8311                       # number of demand (read+write) misses
system.l2.overall_misses::cpu.inst                533                       # number of overall misses
system.l2.overall_misses::cpu.data               7778                       # number of overall misses
system.l2.overall_misses::total                  8311                       # number of overall misses
system.l2.ReadReq_miss_latency::cpu.inst     28771500                       # number of ReadReq miss cycles
system.l2.ReadReq_miss_latency::cpu.data    178844500                       # number of ReadReq miss cycles
system.l2.ReadReq_miss_latency::total       207616000                       # number of ReadReq miss cycles
system.l2.ReadExReq_miss_latency::cpu.data    335923500                       # number of ReadExReq miss cycles
system.l2.ReadExReq_miss_latency::total     335923500                       # number of ReadExReq miss cycles
system.l2.demand_miss_latency::cpu.inst      28771500                       # number of demand (read+write) miss cycles
system.l2.demand_miss_latency::cpu.data     514768000                       # number of demand (read+write) miss cycles
system.l2.demand_miss_latency::total        543539500                       # number of demand (read+write) miss cycles
system.l2.overall_miss_latency::cpu.inst     28771500                       # number of overall miss cycles
system.l2.overall_miss_latency::cpu.data    514768000                       # number of overall miss cycles
system.l2.overall_miss_latency::total       543539500                       # number of overall miss cycles
system.l2.ReadReq_accesses::cpu.inst              620                       # number of ReadReq accesses(hits+misses)
system.l2.ReadReq_accesses::cpu.data             3912                       # number of ReadReq accesses(hits+misses)
system.l2.ReadReq_accesses::total                4532                       # number of ReadReq accesses(hits+misses)
system.l2.Writeback_accesses::writebacks         5804                       # number of Writeback accesses(hits+misses)
system.l2.Writeback_accesses::total              5804                       # number of Writeback accesses(hits+misses)
system.l2.ReadExReq_accesses::cpu.data           5373                       # number of ReadExReq accesses(hits+misses)
system.l2.ReadExReq_accesses::total              5373                       # number of ReadExReq accesses(hits+misses)
system.l2.demand_accesses::cpu.inst               620                       # number of demand (read+write) accesses
system.l2.demand_accesses::cpu.data              9285                       # number of demand (read+write) accesses
system.l2.demand_accesses::total                 9905                       # number of demand (read+write) accesses
system.l2.overall_accesses::cpu.inst              620                       # number of overall (read+write) accesses
system.l2.overall_accesses::cpu.data             9285                       # number of overall (read+write) accesses
system.l2.overall_accesses::total                9905                       # number of overall (read+write) accesses
system.l2.ReadReq_miss_rate::cpu.inst        0.859677                       # miss rate for ReadReq accesses
system.l2.ReadReq_miss_rate::cpu.data        0.737730                       # miss rate for ReadReq accesses
system.l2.ReadReq_miss_rate::total           0.754413                       # miss rate for ReadReq accesses
system.l2.ReadExReq_miss_rate::cpu.data      0.910478                       # miss rate for ReadExReq accesses
system.l2.ReadExReq_miss_rate::total         0.910478                       # miss rate for ReadExReq accesses
system.l2.demand_miss_rate::cpu.inst         0.859677                       # miss rate for demand accesses
system.l2.demand_miss_rate::cpu.data         0.837695                       # miss rate for demand accesses
system.l2.demand_miss_rate::total            0.839071                       # miss rate for demand accesses
system.l2.overall_miss_rate::cpu.inst        0.859677                       # miss rate for overall accesses
system.l2.overall_miss_rate::cpu.data        0.837695                       # miss rate for overall accesses
system.l2.overall_miss_rate::total           0.839071                       # miss rate for overall accesses
system.l2.ReadReq_avg_miss_latency::cpu.inst 53980.300188                       # average ReadReq miss latency
system.l2.ReadReq_avg_miss_latency::cpu.data 61969.681220                       # average ReadReq miss latency
system.l2.ReadReq_avg_miss_latency::total 60724.188359                       # average ReadReq miss latency
system.l2.ReadExReq_avg_miss_latency::cpu.data 68667.927228                       # average ReadExReq miss latency
system.l2.ReadExReq_avg_miss_latency::total 68667.927228                       # average ReadExReq miss latency
system.l2.demand_avg_miss_latency::cpu.inst 53980.300188                       # average overall miss latency
system.l2.demand_avg_miss_latency::cpu.data 66182.566212                       # average overall miss latency
system.l2.demand_avg_miss_latency::total 65400.012032                       # average overall miss latency
system.l2.overall_avg_miss_latency::cpu.inst 53980.300188                       # average overall miss latency
system.l2.overall_avg_miss_latency::cpu.data 66182.566212                       # average overall miss latency
system.l2.overall_avg_miss_latency::total 65400.012032                       # average overall miss latency
=======
sim_seconds                                  0.002363                       # Number of seconds simulated
sim_ticks                                  2362585000                       # Number of ticks simulated
final_tick                                 2362585000                       # Number of ticks from beginning of simulation (restored from checkpoints and never reset)
sim_freq                                 1000000000000                       # Frequency of simulated ticks
host_inst_rate                                 321642                       # Simulator instruction rate (inst/s)
host_op_rate                                   321641                       # Simulator op (including micro ops) rate (op/s)
host_tick_rate                               75990444                       # Simulator tick rate (ticks/s)
host_mem_usage                                2320188                       # Number of bytes of host memory used
host_seconds                                    31.09                       # Real time elapsed on the host
sim_insts                                    10000007                       # Number of instructions simulated
sim_ops                                      10000007                       # Number of ops (including micro ops) simulated
system.physmem.bytes_read::cpu.inst             34240                       # Number of bytes read from this memory
system.physmem.bytes_read::cpu.data            617024                       # Number of bytes read from this memory
system.physmem.bytes_read::total               651264                       # Number of bytes read from this memory
system.physmem.bytes_inst_read::cpu.inst        34240                       # Number of instructions bytes read from this memory
system.physmem.bytes_inst_read::total           34240                       # Number of instructions bytes read from this memory
system.physmem.bytes_written::writebacks       158080                       # Number of bytes written to this memory
system.physmem.bytes_written::total            158080                       # Number of bytes written to this memory
system.physmem.num_reads::cpu.inst                535                       # Number of read requests responded to by this memory
system.physmem.num_reads::cpu.data               9641                       # Number of read requests responded to by this memory
system.physmem.num_reads::total                 10176                       # Number of read requests responded to by this memory
system.physmem.num_writes::writebacks            2470                       # Number of write requests responded to by this memory
system.physmem.num_writes::total                 2470                       # Number of write requests responded to by this memory
system.physmem.bw_read::cpu.inst             14492600                       # Total read bandwidth from this memory (bytes/s)
system.physmem.bw_read::cpu.data            261164783                       # Total read bandwidth from this memory (bytes/s)
system.physmem.bw_read::total               275657384                       # Total read bandwidth from this memory (bytes/s)
system.physmem.bw_inst_read::cpu.inst        14492600                       # Instruction read bandwidth from this memory (bytes/s)
system.physmem.bw_inst_read::total           14492600                       # Instruction read bandwidth from this memory (bytes/s)
system.physmem.bw_write::writebacks          66909762                       # Write bandwidth from this memory (bytes/s)
system.physmem.bw_write::total               66909762                       # Write bandwidth from this memory (bytes/s)
system.physmem.bw_total::writebacks          66909762                       # Total bandwidth to/from this memory (bytes/s)
system.physmem.bw_total::cpu.inst            14492600                       # Total bandwidth to/from this memory (bytes/s)
system.physmem.bw_total::cpu.data           261164783                       # Total bandwidth to/from this memory (bytes/s)
system.physmem.bw_total::total              342567146                       # Total bandwidth to/from this memory (bytes/s)
system.l2.replacements                           2500                       # number of replacements
system.l2.tagsinuse                       5014.526798                       # Cycle average of tags in use
system.l2.total_refs                             2314                       # Total number of references to valid blocks.
system.l2.sampled_refs                          10047                       # Sample count of references to valid blocks.
system.l2.avg_refs                           0.230318                       # Average number of references to valid blocks.
system.l2.warmup_cycle                              0                       # Cycle when the warmup percentage was hit.
system.l2.occ_blocks::writebacks          2066.590298                       # Average occupied blocks per requestor
system.l2.occ_blocks::cpu.inst             500.983318                       # Average occupied blocks per requestor
system.l2.occ_blocks::cpu.data            2446.953182                       # Average occupied blocks per requestor
system.l2.occ_percent::writebacks            0.126135                       # Average percentage of cache occupancy
system.l2.occ_percent::cpu.inst              0.030578                       # Average percentage of cache occupancy
system.l2.occ_percent::cpu.data              0.149350                       # Average percentage of cache occupancy
system.l2.occ_percent::total                 0.306062                       # Average percentage of cache occupancy
system.l2.ReadReq_hits::cpu.inst                   92                       # number of ReadReq hits
system.l2.ReadReq_hits::cpu.data                 1552                       # number of ReadReq hits
system.l2.ReadReq_hits::total                    1644                       # number of ReadReq hits
system.l2.Writeback_hits::writebacks             7324                       # number of Writeback hits
system.l2.Writeback_hits::total                  7324                       # number of Writeback hits
system.l2.ReadExReq_hits::cpu.data                849                       # number of ReadExReq hits
system.l2.ReadExReq_hits::total                   849                       # number of ReadExReq hits
system.l2.demand_hits::cpu.inst                    92                       # number of demand (read+write) hits
system.l2.demand_hits::cpu.data                  2401                       # number of demand (read+write) hits
system.l2.demand_hits::total                     2493                       # number of demand (read+write) hits
system.l2.overall_hits::cpu.inst                   92                       # number of overall hits
system.l2.overall_hits::cpu.data                 2401                       # number of overall hits
system.l2.overall_hits::total                    2493                       # number of overall hits
system.l2.ReadReq_misses::cpu.inst                535                       # number of ReadReq misses
system.l2.ReadReq_misses::cpu.data               3910                       # number of ReadReq misses
system.l2.ReadReq_misses::total                  4445                       # number of ReadReq misses
system.l2.ReadExReq_misses::cpu.data             5731                       # number of ReadExReq misses
system.l2.ReadExReq_misses::total                5731                       # number of ReadExReq misses
system.l2.demand_misses::cpu.inst                 535                       # number of demand (read+write) misses
system.l2.demand_misses::cpu.data                9641                       # number of demand (read+write) misses
system.l2.demand_misses::total                  10176                       # number of demand (read+write) misses
system.l2.overall_misses::cpu.inst                535                       # number of overall misses
system.l2.overall_misses::cpu.data               9641                       # number of overall misses
system.l2.overall_misses::total                 10176                       # number of overall misses
system.l2.ReadReq_miss_latency::cpu.inst     28991000                       # number of ReadReq miss cycles
system.l2.ReadReq_miss_latency::cpu.data    232112000                       # number of ReadReq miss cycles
system.l2.ReadReq_miss_latency::total       261103000                       # number of ReadReq miss cycles
system.l2.ReadExReq_miss_latency::cpu.data    379967500                       # number of ReadExReq miss cycles
system.l2.ReadExReq_miss_latency::total     379967500                       # number of ReadExReq miss cycles
system.l2.demand_miss_latency::cpu.inst      28991000                       # number of demand (read+write) miss cycles
system.l2.demand_miss_latency::cpu.data     612079500                       # number of demand (read+write) miss cycles
system.l2.demand_miss_latency::total        641070500                       # number of demand (read+write) miss cycles
system.l2.overall_miss_latency::cpu.inst     28991000                       # number of overall miss cycles
system.l2.overall_miss_latency::cpu.data    612079500                       # number of overall miss cycles
system.l2.overall_miss_latency::total       641070500                       # number of overall miss cycles
system.l2.ReadReq_accesses::cpu.inst              627                       # number of ReadReq accesses(hits+misses)
system.l2.ReadReq_accesses::cpu.data             5462                       # number of ReadReq accesses(hits+misses)
system.l2.ReadReq_accesses::total                6089                       # number of ReadReq accesses(hits+misses)
system.l2.Writeback_accesses::writebacks         7324                       # number of Writeback accesses(hits+misses)
system.l2.Writeback_accesses::total              7324                       # number of Writeback accesses(hits+misses)
system.l2.ReadExReq_accesses::cpu.data           6580                       # number of ReadExReq accesses(hits+misses)
system.l2.ReadExReq_accesses::total              6580                       # number of ReadExReq accesses(hits+misses)
system.l2.demand_accesses::cpu.inst               627                       # number of demand (read+write) accesses
system.l2.demand_accesses::cpu.data             12042                       # number of demand (read+write) accesses
system.l2.demand_accesses::total                12669                       # number of demand (read+write) accesses
system.l2.overall_accesses::cpu.inst              627                       # number of overall (read+write) accesses
system.l2.overall_accesses::cpu.data            12042                       # number of overall (read+write) accesses
system.l2.overall_accesses::total               12669                       # number of overall (read+write) accesses
system.l2.ReadReq_miss_rate::cpu.inst        0.853270                       # miss rate for ReadReq accesses
system.l2.ReadReq_miss_rate::cpu.data        0.715855                       # miss rate for ReadReq accesses
system.l2.ReadReq_miss_rate::total           0.730005                       # miss rate for ReadReq accesses
system.l2.ReadExReq_miss_rate::cpu.data      0.870973                       # miss rate for ReadExReq accesses
system.l2.ReadExReq_miss_rate::total         0.870973                       # miss rate for ReadExReq accesses
system.l2.demand_miss_rate::cpu.inst         0.853270                       # miss rate for demand accesses
system.l2.demand_miss_rate::cpu.data         0.800615                       # miss rate for demand accesses
system.l2.demand_miss_rate::total            0.803220                       # miss rate for demand accesses
system.l2.overall_miss_rate::cpu.inst        0.853270                       # miss rate for overall accesses
system.l2.overall_miss_rate::cpu.data        0.800615                       # miss rate for overall accesses
system.l2.overall_miss_rate::total           0.803220                       # miss rate for overall accesses
system.l2.ReadReq_avg_miss_latency::cpu.inst 54188.785047                       # average ReadReq miss latency
system.l2.ReadReq_avg_miss_latency::cpu.data 59363.682864                       # average ReadReq miss latency
system.l2.ReadReq_avg_miss_latency::total 58740.832396                       # average ReadReq miss latency
system.l2.ReadExReq_avg_miss_latency::cpu.data 66300.383877                       # average ReadExReq miss latency
system.l2.ReadExReq_avg_miss_latency::total 66300.383877                       # average ReadExReq miss latency
system.l2.demand_avg_miss_latency::cpu.inst 54188.785047                       # average overall miss latency
system.l2.demand_avg_miss_latency::cpu.data 63487.138264                       # average overall miss latency
system.l2.demand_avg_miss_latency::total 62998.280267                       # average overall miss latency
system.l2.overall_avg_miss_latency::cpu.inst 54188.785047                       # average overall miss latency
system.l2.overall_avg_miss_latency::cpu.data 63487.138264                       # average overall miss latency
system.l2.overall_avg_miss_latency::total 62998.280267                       # average overall miss latency
>>>>>>> Stashed changes
system.l2.blocked_cycles::no_mshrs                  0                       # number of cycles access was blocked
system.l2.blocked_cycles::no_targets                0                       # number of cycles access was blocked
system.l2.blocked::no_mshrs                         0                       # number of cycles access was blocked
system.l2.blocked::no_targets                       0                       # number of cycles access was blocked
system.l2.avg_blocked_cycles::no_mshrs            nan                       # average number of cycles each access was blocked
system.l2.avg_blocked_cycles::no_targets          nan                       # average number of cycles each access was blocked
system.l2.fast_writes                               0                       # number of fast writes performed
system.l2.cache_copies                              0                       # number of cache copies performed
<<<<<<< Updated upstream
system.l2.writebacks::writebacks                 2351                       # number of writebacks
system.l2.writebacks::total                      2351                       # number of writebacks
system.l2.ReadReq_mshr_misses::cpu.inst           533                       # number of ReadReq MSHR misses
system.l2.ReadReq_mshr_misses::cpu.data          2886                       # number of ReadReq MSHR misses
system.l2.ReadReq_mshr_misses::total             3419                       # number of ReadReq MSHR misses
system.l2.ReadExReq_mshr_misses::cpu.data         4892                       # number of ReadExReq MSHR misses
system.l2.ReadExReq_mshr_misses::total           4892                       # number of ReadExReq MSHR misses
system.l2.demand_mshr_misses::cpu.inst            533                       # number of demand (read+write) MSHR misses
system.l2.demand_mshr_misses::cpu.data           7778                       # number of demand (read+write) MSHR misses
system.l2.demand_mshr_misses::total              8311                       # number of demand (read+write) MSHR misses
system.l2.overall_mshr_misses::cpu.inst           533                       # number of overall MSHR misses
system.l2.overall_mshr_misses::cpu.data          7778                       # number of overall MSHR misses
system.l2.overall_mshr_misses::total             8311                       # number of overall MSHR misses
system.l2.ReadReq_mshr_miss_latency::cpu.inst     22262500                       # number of ReadReq MSHR miss cycles
system.l2.ReadReq_mshr_miss_latency::cpu.data    144010000                       # number of ReadReq MSHR miss cycles
system.l2.ReadReq_mshr_miss_latency::total    166272500                       # number of ReadReq MSHR miss cycles
system.l2.ReadExReq_mshr_miss_latency::cpu.data    276801000                       # number of ReadExReq MSHR miss cycles
system.l2.ReadExReq_mshr_miss_latency::total    276801000                       # number of ReadExReq MSHR miss cycles
system.l2.demand_mshr_miss_latency::cpu.inst     22262500                       # number of demand (read+write) MSHR miss cycles
system.l2.demand_mshr_miss_latency::cpu.data    420811000                       # number of demand (read+write) MSHR miss cycles
system.l2.demand_mshr_miss_latency::total    443073500                       # number of demand (read+write) MSHR miss cycles
system.l2.overall_mshr_miss_latency::cpu.inst     22262500                       # number of overall MSHR miss cycles
system.l2.overall_mshr_miss_latency::cpu.data    420811000                       # number of overall MSHR miss cycles
system.l2.overall_mshr_miss_latency::total    443073500                       # number of overall MSHR miss cycles
system.l2.ReadReq_mshr_miss_rate::cpu.inst     0.859677                       # mshr miss rate for ReadReq accesses
system.l2.ReadReq_mshr_miss_rate::cpu.data     0.737730                       # mshr miss rate for ReadReq accesses
system.l2.ReadReq_mshr_miss_rate::total      0.754413                       # mshr miss rate for ReadReq accesses
system.l2.ReadExReq_mshr_miss_rate::cpu.data     0.910478                       # mshr miss rate for ReadExReq accesses
system.l2.ReadExReq_mshr_miss_rate::total     0.910478                       # mshr miss rate for ReadExReq accesses
system.l2.demand_mshr_miss_rate::cpu.inst     0.859677                       # mshr miss rate for demand accesses
system.l2.demand_mshr_miss_rate::cpu.data     0.837695                       # mshr miss rate for demand accesses
system.l2.demand_mshr_miss_rate::total       0.839071                       # mshr miss rate for demand accesses
system.l2.overall_mshr_miss_rate::cpu.inst     0.859677                       # mshr miss rate for overall accesses
system.l2.overall_mshr_miss_rate::cpu.data     0.837695                       # mshr miss rate for overall accesses
system.l2.overall_mshr_miss_rate::total      0.839071                       # mshr miss rate for overall accesses
system.l2.ReadReq_avg_mshr_miss_latency::cpu.inst 41768.292683                       # average ReadReq mshr miss latency
system.l2.ReadReq_avg_mshr_miss_latency::cpu.data 49899.514900                       # average ReadReq mshr miss latency
system.l2.ReadReq_avg_mshr_miss_latency::total 48631.909915                       # average ReadReq mshr miss latency
system.l2.ReadExReq_avg_mshr_miss_latency::cpu.data 56582.379395                       # average ReadExReq mshr miss latency
system.l2.ReadExReq_avg_mshr_miss_latency::total 56582.379395                       # average ReadExReq mshr miss latency
system.l2.demand_avg_mshr_miss_latency::cpu.inst 41768.292683                       # average overall mshr miss latency
system.l2.demand_avg_mshr_miss_latency::cpu.data 54102.725636                       # average overall mshr miss latency
system.l2.demand_avg_mshr_miss_latency::total 53311.695344                       # average overall mshr miss latency
system.l2.overall_avg_mshr_miss_latency::cpu.inst 41768.292683                       # average overall mshr miss latency
system.l2.overall_avg_mshr_miss_latency::cpu.data 54102.725636                       # average overall mshr miss latency
system.l2.overall_avg_mshr_miss_latency::total 53311.695344                       # average overall mshr miss latency
=======
system.l2.writebacks::writebacks                 2470                       # number of writebacks
system.l2.writebacks::total                      2470                       # number of writebacks
system.l2.ReadReq_mshr_misses::cpu.inst           535                       # number of ReadReq MSHR misses
system.l2.ReadReq_mshr_misses::cpu.data          3910                       # number of ReadReq MSHR misses
system.l2.ReadReq_mshr_misses::total             4445                       # number of ReadReq MSHR misses
system.l2.ReadExReq_mshr_misses::cpu.data         5731                       # number of ReadExReq MSHR misses
system.l2.ReadExReq_mshr_misses::total           5731                       # number of ReadExReq MSHR misses
system.l2.demand_mshr_misses::cpu.inst            535                       # number of demand (read+write) MSHR misses
system.l2.demand_mshr_misses::cpu.data           9641                       # number of demand (read+write) MSHR misses
system.l2.demand_mshr_misses::total             10176                       # number of demand (read+write) MSHR misses
system.l2.overall_mshr_misses::cpu.inst           535                       # number of overall MSHR misses
system.l2.overall_mshr_misses::cpu.data          9641                       # number of overall MSHR misses
system.l2.overall_mshr_misses::total            10176                       # number of overall MSHR misses
system.l2.ReadReq_mshr_miss_latency::cpu.inst     22459500                       # number of ReadReq MSHR miss cycles
system.l2.ReadReq_mshr_miss_latency::cpu.data    184930500                       # number of ReadReq MSHR miss cycles
system.l2.ReadReq_mshr_miss_latency::total    207390000                       # number of ReadReq MSHR miss cycles
system.l2.ReadExReq_mshr_miss_latency::cpu.data    310558500                       # number of ReadExReq MSHR miss cycles
system.l2.ReadExReq_mshr_miss_latency::total    310558500                       # number of ReadExReq MSHR miss cycles
system.l2.demand_mshr_miss_latency::cpu.inst     22459500                       # number of demand (read+write) MSHR miss cycles
system.l2.demand_mshr_miss_latency::cpu.data    495489000                       # number of demand (read+write) MSHR miss cycles
system.l2.demand_mshr_miss_latency::total    517948500                       # number of demand (read+write) MSHR miss cycles
system.l2.overall_mshr_miss_latency::cpu.inst     22459500                       # number of overall MSHR miss cycles
system.l2.overall_mshr_miss_latency::cpu.data    495489000                       # number of overall MSHR miss cycles
system.l2.overall_mshr_miss_latency::total    517948500                       # number of overall MSHR miss cycles
system.l2.ReadReq_mshr_miss_rate::cpu.inst     0.853270                       # mshr miss rate for ReadReq accesses
system.l2.ReadReq_mshr_miss_rate::cpu.data     0.715855                       # mshr miss rate for ReadReq accesses
system.l2.ReadReq_mshr_miss_rate::total      0.730005                       # mshr miss rate for ReadReq accesses
system.l2.ReadExReq_mshr_miss_rate::cpu.data     0.870973                       # mshr miss rate for ReadExReq accesses
system.l2.ReadExReq_mshr_miss_rate::total     0.870973                       # mshr miss rate for ReadExReq accesses
system.l2.demand_mshr_miss_rate::cpu.inst     0.853270                       # mshr miss rate for demand accesses
system.l2.demand_mshr_miss_rate::cpu.data     0.800615                       # mshr miss rate for demand accesses
system.l2.demand_mshr_miss_rate::total       0.803220                       # mshr miss rate for demand accesses
system.l2.overall_mshr_miss_rate::cpu.inst     0.853270                       # mshr miss rate for overall accesses
system.l2.overall_mshr_miss_rate::cpu.data     0.800615                       # mshr miss rate for overall accesses
system.l2.overall_mshr_miss_rate::total      0.803220                       # mshr miss rate for overall accesses
system.l2.ReadReq_avg_mshr_miss_latency::cpu.inst 41980.373832                       # average ReadReq mshr miss latency
system.l2.ReadReq_avg_mshr_miss_latency::cpu.data 47296.803069                       # average ReadReq mshr miss latency
system.l2.ReadReq_avg_mshr_miss_latency::total 46656.917885                       # average ReadReq mshr miss latency
system.l2.ReadExReq_avg_mshr_miss_latency::cpu.data 54189.233991                       # average ReadExReq mshr miss latency
system.l2.ReadExReq_avg_mshr_miss_latency::total 54189.233991                       # average ReadExReq mshr miss latency
system.l2.demand_avg_mshr_miss_latency::cpu.inst 41980.373832                       # average overall mshr miss latency
system.l2.demand_avg_mshr_miss_latency::cpu.data 51393.942537                       # average overall mshr miss latency
system.l2.demand_avg_mshr_miss_latency::total 50899.027123                       # average overall mshr miss latency
system.l2.overall_avg_mshr_miss_latency::cpu.inst 41980.373832                       # average overall mshr miss latency
system.l2.overall_avg_mshr_miss_latency::cpu.data 51393.942537                       # average overall mshr miss latency
system.l2.overall_avg_mshr_miss_latency::total 50899.027123                       # average overall mshr miss latency
>>>>>>> Stashed changes
system.l2.no_allocate_misses                        0                       # Number of misses that were no-allocate
system.cpu.dtb.fetch_hits                           0                       # ITB hits
system.cpu.dtb.fetch_misses                         0                       # ITB misses
system.cpu.dtb.fetch_acv                            0                       # ITB acv
system.cpu.dtb.fetch_accesses                       0                       # ITB accesses
<<<<<<< Updated upstream
system.cpu.dtb.read_hits                      2523550                       # DTB read hits
system.cpu.dtb.read_misses                       3353                       # DTB read misses
system.cpu.dtb.read_acv                             0                       # DTB read access violations
system.cpu.dtb.read_accesses                  2526903                       # DTB read accesses
system.cpu.dtb.write_hits                      943320                       # DTB write hits
system.cpu.dtb.write_misses                     10667                       # DTB write misses
system.cpu.dtb.write_acv                            0                       # DTB write access violations
system.cpu.dtb.write_accesses                  953987                       # DTB write accesses
system.cpu.dtb.data_hits                      3466870                       # DTB hits
system.cpu.dtb.data_misses                      14020                       # DTB misses
system.cpu.dtb.data_acv                             0                       # DTB access violations
system.cpu.dtb.data_accesses                  3480890                       # DTB accesses
system.cpu.itb.fetch_hits                      780933                       # ITB hits
system.cpu.itb.fetch_misses                        77                       # ITB misses
system.cpu.itb.fetch_acv                            0                       # ITB acv
system.cpu.itb.fetch_accesses                  781010                       # ITB accesses
=======
system.cpu.dtb.read_hits                      3962602                       # DTB read hits
system.cpu.dtb.read_misses                       2891                       # DTB read misses
system.cpu.dtb.read_acv                             0                       # DTB read access violations
system.cpu.dtb.read_accesses                  3965493                       # DTB read accesses
system.cpu.dtb.write_hits                     1469091                       # DTB write hits
system.cpu.dtb.write_misses                     10643                       # DTB write misses
system.cpu.dtb.write_acv                            0                       # DTB write access violations
system.cpu.dtb.write_accesses                 1479734                       # DTB write accesses
system.cpu.dtb.data_hits                      5431693                       # DTB hits
system.cpu.dtb.data_misses                      13534                       # DTB misses
system.cpu.dtb.data_acv                             0                       # DTB access violations
system.cpu.dtb.data_accesses                  5445227                       # DTB accesses
system.cpu.itb.fetch_hits                     1234462                       # ITB hits
system.cpu.itb.fetch_misses                        77                       # ITB misses
system.cpu.itb.fetch_acv                            0                       # ITB acv
system.cpu.itb.fetch_accesses                 1234539                       # ITB accesses
>>>>>>> Stashed changes
system.cpu.itb.read_hits                            0                       # DTB read hits
system.cpu.itb.read_misses                          0                       # DTB read misses
system.cpu.itb.read_acv                             0                       # DTB read access violations
system.cpu.itb.read_accesses                        0                       # DTB read accesses
system.cpu.itb.write_hits                           0                       # DTB write hits
system.cpu.itb.write_misses                         0                       # DTB write misses
system.cpu.itb.write_acv                            0                       # DTB write access violations
system.cpu.itb.write_accesses                       0                       # DTB write accesses
system.cpu.itb.data_hits                            0                       # DTB hits
system.cpu.itb.data_misses                          0                       # DTB misses
system.cpu.itb.data_acv                             0                       # DTB access violations
system.cpu.itb.data_accesses                        0                       # DTB accesses
system.cpu.workload.num_syscalls                   29                       # Number of system calls
<<<<<<< Updated upstream
system.cpu.numCycles                          3027794                       # number of cpu cycles simulated
system.cpu.numWorkItemsStarted                      0                       # number of work items this cpu started
system.cpu.numWorkItemsCompleted                    0                       # number of work items this cpu completed
system.cpu.BPredUnit.lookups                   837918                       # Number of BP lookups
system.cpu.BPredUnit.condPredicted             696412                       # Number of conditional branches predicted
system.cpu.BPredUnit.condIncorrect              11992                       # Number of conditional branches incorrect
system.cpu.BPredUnit.BTBLookups                407104                       # Number of BTB lookups
system.cpu.BPredUnit.BTBHits                   394281                       # Number of BTB hits
system.cpu.BPredUnit.BTBCorrect                     0                       # Number of correct BTB predictions (this stat may not work properly.
system.cpu.BPredUnit.usedRAS                     6239                       # Number of times the RAS was used to get a target.
system.cpu.BPredUnit.RASInCorrect                  55                       # Number of incorrect RAS predictions.
system.cpu.fetch.icacheStallCycles             795497                       # Number of cycles fetch is stalled on an Icache miss
system.cpu.fetch.Insts                        6870571                       # Number of instructions fetch has processed
system.cpu.fetch.Branches                      837918                       # Number of branches that fetch encountered
system.cpu.fetch.predictedBranches             400520                       # Number of branches that fetch has predicted taken
system.cpu.fetch.Cycles                       1274738                       # Number of cycles fetch has run and was not squashing or blocked
system.cpu.fetch.SquashCycles                   61530                       # Number of cycles fetch has spent squashing
system.cpu.fetch.BlockedCycles                 874071                       # Number of cycles fetch has spent blocked
system.cpu.fetch.MiscStallCycles                   35                       # Number of cycles fetch has spent waiting on interrupts, or bad addresses, or out of MSHRs
system.cpu.fetch.PendingTrapStallCycles          1865                       # Number of stall cycles due to pending traps
system.cpu.fetch.CacheLines                    780933                       # Number of cache lines fetched
system.cpu.fetch.IcacheSquashes                  8074                       # Number of outstanding Icache misses that were squashed
system.cpu.fetch.rateDist::samples            2994998                       # Number of instructions fetched each cycle (Total)
system.cpu.fetch.rateDist::mean              2.294015                       # Number of instructions fetched each cycle (Total)
system.cpu.fetch.rateDist::stdev             3.263409                       # Number of instructions fetched each cycle (Total)
system.cpu.fetch.rateDist::underflows               0      0.00%      0.00% # Number of instructions fetched each cycle (Total)
system.cpu.fetch.rateDist::0                  1720260     57.44%     57.44% # Number of instructions fetched each cycle (Total)
system.cpu.fetch.rateDist::1                   243008      8.11%     65.55% # Number of instructions fetched each cycle (Total)
system.cpu.fetch.rateDist::2                    14501      0.48%     66.04% # Number of instructions fetched each cycle (Total)
system.cpu.fetch.rateDist::3                   230916      7.71%     73.75% # Number of instructions fetched each cycle (Total)
system.cpu.fetch.rateDist::4                     5454      0.18%     73.93% # Number of instructions fetched each cycle (Total)
system.cpu.fetch.rateDist::5                   103642      3.46%     77.39% # Number of instructions fetched each cycle (Total)
system.cpu.fetch.rateDist::6                    18607      0.62%     78.01% # Number of instructions fetched each cycle (Total)
system.cpu.fetch.rateDist::7                    14735      0.49%     78.50% # Number of instructions fetched each cycle (Total)
system.cpu.fetch.rateDist::8                   643875     21.50%    100.00% # Number of instructions fetched each cycle (Total)
system.cpu.fetch.rateDist::overflows                0      0.00%    100.00% # Number of instructions fetched each cycle (Total)
system.cpu.fetch.rateDist::min_value                0                       # Number of instructions fetched each cycle (Total)
system.cpu.fetch.rateDist::max_value                8                       # Number of instructions fetched each cycle (Total)
system.cpu.fetch.rateDist::total              2994998                       # Number of instructions fetched each cycle (Total)
system.cpu.fetch.branchRate                  0.276742                       # Number of branch fetches per cycle
system.cpu.fetch.rate                        2.269167                       # Number of inst fetches per cycle
system.cpu.decode.IdleCycles                   946467                       # Number of cycles decode is idle
system.cpu.decode.BlockedCycles                735029                       # Number of cycles decode is blocked
system.cpu.decode.RunCycles                   1215299                       # Number of cycles decode is running
system.cpu.decode.UnblockCycles                 49667                       # Number of cycles decode is unblocking
system.cpu.decode.SquashCycles                  48536                       # Number of cycles decode is squashing
system.cpu.decode.BranchResolved               133593                       # Number of times decode resolved a branch
system.cpu.decode.BranchMispred                   264                       # Number of times decode detected a branch misprediction
system.cpu.decode.DecodedInsts                6838917                       # Number of instructions handled by decode
system.cpu.decode.SquashedInsts                   845                       # Number of squashed instructions handled by decode
system.cpu.rename.SquashCycles                  48536                       # Number of cycles rename is squashing
system.cpu.rename.IdleCycles                  1071021                       # Number of cycles rename is idle
system.cpu.rename.BlockCycles                  349294                       # Number of cycles rename is blocking
system.cpu.rename.serializeStallCycles           6366                       # count of cycles rename stalled for serializing inst
system.cpu.rename.RunCycles                   1137523                       # Number of cycles rename is running
system.cpu.rename.UnblockCycles                382258                       # Number of cycles rename is unblocking
system.cpu.rename.RenamedInsts                6781938                       # Number of instructions processed by rename
system.cpu.rename.ROBFullEvents                  2333                       # Number of times rename has blocked due to ROB full
system.cpu.rename.IQFullEvents                  58699                       # Number of times rename has blocked due to IQ full
system.cpu.rename.LSQFullEvents                227577                       # Number of times rename has blocked due to LSQ full
system.cpu.rename.RenamedOperands             4952568                       # Number of destination operands rename has renamed
system.cpu.rename.RenameLookups               8557974                       # Number of register rename lookups that rename has made
system.cpu.rename.int_rename_lookups          8557776                       # Number of integer rename lookups
system.cpu.rename.fp_rename_lookups               198                       # Number of floating rename lookups
system.cpu.rename.CommittedMaps               4663381                       # Number of HB maps that are committed
system.cpu.rename.UndoneMaps                   289160                       # Number of HB maps that are undone due to squashing
system.cpu.rename.serializingInsts                165                       # count of serializing insts renamed
system.cpu.rename.tempSerializingInsts             91                       # count of temporary serializing insts renamed
system.cpu.rename.skidInsts                    541237                       # count of insts added to the skid buffer
system.cpu.memDep0.insertedLoads              2546531                       # Number of loads inserted to the mem dependence unit.
system.cpu.memDep0.insertedStores              974267                       # Number of stores inserted to the mem dependence unit.
system.cpu.memDep0.conflictingLoads            400118                       # Number of conflicting loads.
system.cpu.memDep0.conflictingStores            61197                       # Number of conflicting stores.
system.cpu.iq.iqInstsAdded                    6709237                       # Number of instructions added to the IQ (excludes non-spec)
system.cpu.iq.iqNonSpecInstsAdded                 139                       # Number of non-speculative instructions added to the IQ
system.cpu.iq.iqInstsIssued                   6640397                       # Number of instructions issued
system.cpu.iq.iqSquashedInstsIssued               815                       # Number of squashed instructions issued
system.cpu.iq.iqSquashedInstsExamined          342357                       # Number of squashed instructions iterated over during squash; mainly for profiling
system.cpu.iq.iqSquashedOperandsExamined       145860                       # Number of squashed operands that are examined and possibly removed from graph
system.cpu.iq.iqSquashedNonSpecRemoved             41                       # Number of squashed non-spec instructions that were removed
system.cpu.iq.issued_per_cycle::samples       2994998                       # Number of insts issued each cycle
system.cpu.iq.issued_per_cycle::mean         2.217162                       # Number of insts issued each cycle
system.cpu.iq.issued_per_cycle::stdev        1.841165                       # Number of insts issued each cycle
system.cpu.iq.issued_per_cycle::underflows            0      0.00%      0.00% # Number of insts issued each cycle
system.cpu.iq.issued_per_cycle::0              698048     23.31%     23.31% # Number of insts issued each cycle
system.cpu.iq.issued_per_cycle::1              554982     18.53%     41.84% # Number of insts issued each cycle
system.cpu.iq.issued_per_cycle::2              460183     15.37%     57.20% # Number of insts issued each cycle
system.cpu.iq.issued_per_cycle::3              548961     18.33%     75.53% # Number of insts issued each cycle
system.cpu.iq.issued_per_cycle::4              385030     12.86%     88.39% # Number of insts issued each cycle
system.cpu.iq.issued_per_cycle::5              134329      4.49%     92.87% # Number of insts issued each cycle
system.cpu.iq.issued_per_cycle::6              189249      6.32%     99.19% # Number of insts issued each cycle
system.cpu.iq.issued_per_cycle::7               22821      0.76%     99.95% # Number of insts issued each cycle
system.cpu.iq.issued_per_cycle::8                1395      0.05%    100.00% # Number of insts issued each cycle
system.cpu.iq.issued_per_cycle::overflows            0      0.00%    100.00% # Number of insts issued each cycle
system.cpu.iq.issued_per_cycle::min_value            0                       # Number of insts issued each cycle
system.cpu.iq.issued_per_cycle::max_value            8                       # Number of insts issued each cycle
system.cpu.iq.issued_per_cycle::total         2994998                       # Number of insts issued each cycle
system.cpu.iq.fu_full::No_OpClass                   0      0.00%      0.00% # attempts to use FU when none available
system.cpu.iq.fu_full::IntAlu                      16      0.11%      0.11% # attempts to use FU when none available
system.cpu.iq.fu_full::IntMult                      0      0.00%      0.11% # attempts to use FU when none available
system.cpu.iq.fu_full::IntDiv                       0      0.00%      0.11% # attempts to use FU when none available
system.cpu.iq.fu_full::FloatAdd                     0      0.00%      0.11% # attempts to use FU when none available
system.cpu.iq.fu_full::FloatCmp                     0      0.00%      0.11% # attempts to use FU when none available
system.cpu.iq.fu_full::FloatCvt                     0      0.00%      0.11% # attempts to use FU when none available
system.cpu.iq.fu_full::FloatMult                    0      0.00%      0.11% # attempts to use FU when none available
system.cpu.iq.fu_full::FloatDiv                     0      0.00%      0.11% # attempts to use FU when none available
system.cpu.iq.fu_full::FloatSqrt                    0      0.00%      0.11% # attempts to use FU when none available
system.cpu.iq.fu_full::SimdAdd                      0      0.00%      0.11% # attempts to use FU when none available
system.cpu.iq.fu_full::SimdAddAcc                   0      0.00%      0.11% # attempts to use FU when none available
system.cpu.iq.fu_full::SimdAlu                      0      0.00%      0.11% # attempts to use FU when none available
system.cpu.iq.fu_full::SimdCmp                      0      0.00%      0.11% # attempts to use FU when none available
system.cpu.iq.fu_full::SimdCvt                      0      0.00%      0.11% # attempts to use FU when none available
system.cpu.iq.fu_full::SimdMisc                     0      0.00%      0.11% # attempts to use FU when none available
system.cpu.iq.fu_full::SimdMult                     0      0.00%      0.11% # attempts to use FU when none available
system.cpu.iq.fu_full::SimdMultAcc                  0      0.00%      0.11% # attempts to use FU when none available
system.cpu.iq.fu_full::SimdShift                    0      0.00%      0.11% # attempts to use FU when none available
system.cpu.iq.fu_full::SimdShiftAcc                 0      0.00%      0.11% # attempts to use FU when none available
system.cpu.iq.fu_full::SimdSqrt                     0      0.00%      0.11% # attempts to use FU when none available
system.cpu.iq.fu_full::SimdFloatAdd                 0      0.00%      0.11% # attempts to use FU when none available
system.cpu.iq.fu_full::SimdFloatAlu                 0      0.00%      0.11% # attempts to use FU when none available
system.cpu.iq.fu_full::SimdFloatCmp                 0      0.00%      0.11% # attempts to use FU when none available
system.cpu.iq.fu_full::SimdFloatCvt                 0      0.00%      0.11% # attempts to use FU when none available
system.cpu.iq.fu_full::SimdFloatDiv                 0      0.00%      0.11% # attempts to use FU when none available
system.cpu.iq.fu_full::SimdFloatMisc                0      0.00%      0.11% # attempts to use FU when none available
system.cpu.iq.fu_full::SimdFloatMult                0      0.00%      0.11% # attempts to use FU when none available
system.cpu.iq.fu_full::SimdFloatMultAcc             0      0.00%      0.11% # attempts to use FU when none available
system.cpu.iq.fu_full::SimdFloatSqrt                0      0.00%      0.11% # attempts to use FU when none available
system.cpu.iq.fu_full::MemRead                  12768     88.57%     88.68% # attempts to use FU when none available
system.cpu.iq.fu_full::MemWrite                  1632     11.32%    100.00% # attempts to use FU when none available
system.cpu.iq.fu_full::IprAccess                    0      0.00%    100.00% # attempts to use FU when none available
system.cpu.iq.fu_full::InstPrefetch                 0      0.00%    100.00% # attempts to use FU when none available
system.cpu.iq.FU_type_0::No_OpClass                 9      0.00%      0.00% # Type of FU issued
system.cpu.iq.FU_type_0::IntAlu               3155252     47.52%     47.52% # Type of FU issued
system.cpu.iq.FU_type_0::IntMult                   53      0.00%     47.52% # Type of FU issued
system.cpu.iq.FU_type_0::IntDiv                     0      0.00%     47.52% # Type of FU issued
system.cpu.iq.FU_type_0::FloatAdd                  12      0.00%     47.52% # Type of FU issued
system.cpu.iq.FU_type_0::FloatCmp                   0      0.00%     47.52% # Type of FU issued
system.cpu.iq.FU_type_0::FloatCvt                  10      0.00%     47.52% # Type of FU issued
system.cpu.iq.FU_type_0::FloatMult                  0      0.00%     47.52% # Type of FU issued
system.cpu.iq.FU_type_0::FloatDiv                   2      0.00%     47.52% # Type of FU issued
system.cpu.iq.FU_type_0::FloatSqrt                  0      0.00%     47.52% # Type of FU issued
system.cpu.iq.FU_type_0::SimdAdd                    0      0.00%     47.52% # Type of FU issued
system.cpu.iq.FU_type_0::SimdAddAcc                 0      0.00%     47.52% # Type of FU issued
system.cpu.iq.FU_type_0::SimdAlu                    0      0.00%     47.52% # Type of FU issued
system.cpu.iq.FU_type_0::SimdCmp                    0      0.00%     47.52% # Type of FU issued
system.cpu.iq.FU_type_0::SimdCvt                    0      0.00%     47.52% # Type of FU issued
system.cpu.iq.FU_type_0::SimdMisc                   0      0.00%     47.52% # Type of FU issued
system.cpu.iq.FU_type_0::SimdMult                   0      0.00%     47.52% # Type of FU issued
system.cpu.iq.FU_type_0::SimdMultAcc                0      0.00%     47.52% # Type of FU issued
system.cpu.iq.FU_type_0::SimdShift                  0      0.00%     47.52% # Type of FU issued
system.cpu.iq.FU_type_0::SimdShiftAcc               0      0.00%     47.52% # Type of FU issued
system.cpu.iq.FU_type_0::SimdSqrt                   0      0.00%     47.52% # Type of FU issued
system.cpu.iq.FU_type_0::SimdFloatAdd               0      0.00%     47.52% # Type of FU issued
system.cpu.iq.FU_type_0::SimdFloatAlu               0      0.00%     47.52% # Type of FU issued
system.cpu.iq.FU_type_0::SimdFloatCmp               0      0.00%     47.52% # Type of FU issued
system.cpu.iq.FU_type_0::SimdFloatCvt               0      0.00%     47.52% # Type of FU issued
system.cpu.iq.FU_type_0::SimdFloatDiv               0      0.00%     47.52% # Type of FU issued
system.cpu.iq.FU_type_0::SimdFloatMisc              0      0.00%     47.52% # Type of FU issued
system.cpu.iq.FU_type_0::SimdFloatMult              0      0.00%     47.52% # Type of FU issued
system.cpu.iq.FU_type_0::SimdFloatMultAcc            0      0.00%     47.52% # Type of FU issued
system.cpu.iq.FU_type_0::SimdFloatSqrt              0      0.00%     47.52% # Type of FU issued
system.cpu.iq.FU_type_0::MemRead              2529288     38.09%     85.61% # Type of FU issued
system.cpu.iq.FU_type_0::MemWrite              955771     14.39%    100.00% # Type of FU issued
system.cpu.iq.FU_type_0::IprAccess                  0      0.00%    100.00% # Type of FU issued
system.cpu.iq.FU_type_0::InstPrefetch               0      0.00%    100.00% # Type of FU issued
system.cpu.iq.FU_type_0::total                6640397                       # Type of FU issued
system.cpu.iq.rate                           2.193147                       # Inst issue rate
system.cpu.iq.fu_busy_cnt                       14416                       # FU busy when requested
system.cpu.iq.fu_busy_rate                   0.002171                       # FU busy rate (busy events/executed inst)
system.cpu.iq.int_inst_queue_reads           16290825                       # Number of integer instruction queue reads
system.cpu.iq.int_inst_queue_writes           7051730                       # Number of integer instruction queue writes
system.cpu.iq.int_inst_queue_wakeup_accesses      6600800                       # Number of integer instruction queue wakeup accesses
system.cpu.iq.fp_inst_queue_reads                 194                       # Number of floating instruction queue reads
system.cpu.iq.fp_inst_queue_writes                143                       # Number of floating instruction queue writes
system.cpu.iq.fp_inst_queue_wakeup_accesses           85                       # Number of floating instruction queue wakeup accesses
system.cpu.iq.int_alu_accesses                6654703                       # Number of integer alu accesses
system.cpu.iq.fp_alu_accesses                     101                       # Number of floating point alu accesses
system.cpu.iew.lsq.thread0.forwLoads           484641                       # Number of loads that had data forwarded from stores
system.cpu.iew.lsq.thread0.invAddrLoads             0                       # Number of loads ignored due to an invalid address
system.cpu.iew.lsq.thread0.squashedLoads        86748                       # Number of loads squashed
system.cpu.iew.lsq.thread0.ignoredResponses           39                       # Number of memory responses ignored because the instruction is squashed
system.cpu.iew.lsq.thread0.memOrderViolation          141                       # Number of memory ordering violations
system.cpu.iew.lsq.thread0.squashedStores        47489                       # Number of stores squashed
=======
system.cpu.numCycles                          4725171                       # number of cpu cycles simulated
system.cpu.numWorkItemsStarted                      0                       # number of work items this cpu started
system.cpu.numWorkItemsCompleted                    0                       # number of work items this cpu completed
system.cpu.BPredUnit.lookups                  1334193                       # Number of BP lookups
system.cpu.BPredUnit.condPredicted            1108632                       # Number of conditional branches predicted
system.cpu.BPredUnit.condIncorrect              20556                       # Number of conditional branches incorrect
system.cpu.BPredUnit.BTBLookups                618617                       # Number of BTB lookups
system.cpu.BPredUnit.BTBHits                   605705                       # Number of BTB hits
system.cpu.BPredUnit.BTBCorrect                     0                       # Number of correct BTB predictions (this stat may not work properly.
system.cpu.BPredUnit.usedRAS                     9861                       # Number of times the RAS was used to get a target.
system.cpu.BPredUnit.RASInCorrect                  61                       # Number of incorrect RAS predictions.
system.cpu.fetch.icacheStallCycles            1251666                       # Number of cycles fetch is stalled on an Icache miss
system.cpu.fetch.Insts                       10790918                       # Number of instructions fetch has processed
system.cpu.fetch.Branches                     1334193                       # Number of branches that fetch encountered
system.cpu.fetch.predictedBranches             615566                       # Number of branches that fetch has predicted taken
system.cpu.fetch.Cycles                       1997074                       # Number of cycles fetch has run and was not squashing or blocked
system.cpu.fetch.SquashCycles                   95433                       # Number of cycles fetch has spent squashing
system.cpu.fetch.BlockedCycles                1366322                       # Number of cycles fetch has spent blocked
system.cpu.fetch.MiscStallCycles                   35                       # Number of cycles fetch has spent waiting on interrupts, or bad addresses, or out of MSHRs
system.cpu.fetch.PendingTrapStallCycles          1891                       # Number of stall cycles due to pending traps
system.cpu.fetch.CacheLines                   1234462                       # Number of cache lines fetched
system.cpu.fetch.IcacheSquashes                 12939                       # Number of outstanding Icache misses that were squashed
system.cpu.fetch.rateDist::samples            4691078                       # Number of instructions fetched each cycle (Total)
system.cpu.fetch.rateDist::mean              2.300307                       # Number of instructions fetched each cycle (Total)
system.cpu.fetch.rateDist::stdev             3.273383                       # Number of instructions fetched each cycle (Total)
system.cpu.fetch.rateDist::underflows               0      0.00%      0.00% # Number of instructions fetched each cycle (Total)
system.cpu.fetch.rateDist::0                  2694004     57.43%     57.43% # Number of instructions fetched each cycle (Total)
system.cpu.fetch.rateDist::1                   384044      8.19%     65.61% # Number of instructions fetched each cycle (Total)
system.cpu.fetch.rateDist::2                    23725      0.51%     66.12% # Number of instructions fetched each cycle (Total)
system.cpu.fetch.rateDist::3                   356635      7.60%     73.72% # Number of instructions fetched each cycle (Total)
system.cpu.fetch.rateDist::4                     7850      0.17%     73.89% # Number of instructions fetched each cycle (Total)
system.cpu.fetch.rateDist::5                   155200      3.31%     77.20% # Number of instructions fetched each cycle (Total)
system.cpu.fetch.rateDist::6                    30077      0.64%     77.84% # Number of instructions fetched each cycle (Total)
system.cpu.fetch.rateDist::7                    14687      0.31%     78.15% # Number of instructions fetched each cycle (Total)
system.cpu.fetch.rateDist::8                  1024856     21.85%    100.00% # Number of instructions fetched each cycle (Total)
system.cpu.fetch.rateDist::overflows                0      0.00%    100.00% # Number of instructions fetched each cycle (Total)
system.cpu.fetch.rateDist::min_value                0                       # Number of instructions fetched each cycle (Total)
system.cpu.fetch.rateDist::max_value                8                       # Number of instructions fetched each cycle (Total)
system.cpu.fetch.rateDist::total              4691078                       # Number of instructions fetched each cycle (Total)
system.cpu.fetch.branchRate                  0.282359                       # Number of branch fetches per cycle
system.cpu.fetch.rate                        2.283710                       # Number of inst fetches per cycle
system.cpu.decode.IdleCycles                  1492403                       # Number of cycles decode is idle
system.cpu.decode.BlockedCycles               1144582                       # Number of cycles decode is blocked
system.cpu.decode.RunCycles                   1899516                       # Number of cycles decode is running
system.cpu.decode.UnblockCycles                 80744                       # Number of cycles decode is unblocking
system.cpu.decode.SquashCycles                  73833                       # Number of cycles decode is squashing
system.cpu.decode.BranchResolved               212984                       # Number of times decode resolved a branch
system.cpu.decode.BranchMispred                   265                       # Number of times decode detected a branch misprediction
system.cpu.decode.DecodedInsts               10731703                       # Number of instructions handled by decode
system.cpu.decode.SquashedInsts                   857                       # Number of squashed instructions handled by decode
system.cpu.rename.SquashCycles                  73833                       # Number of cycles rename is squashing
system.cpu.rename.IdleCycles                  1687960                       # Number of cycles rename is idle
system.cpu.rename.BlockCycles                  536037                       # Number of cycles rename is blocking
system.cpu.rename.serializeStallCycles           6812                       # count of cycles rename stalled for serializing inst
system.cpu.rename.RunCycles                   1780388                       # Number of cycles rename is running
system.cpu.rename.UnblockCycles                606048                       # Number of cycles rename is unblocking
system.cpu.rename.RenamedInsts               10644488                       # Number of instructions processed by rename
system.cpu.rename.ROBFullEvents                  2350                       # Number of times rename has blocked due to ROB full
system.cpu.rename.IQFullEvents                 101807                       # Number of times rename has blocked due to IQ full
system.cpu.rename.LSQFullEvents                363426                       # Number of times rename has blocked due to LSQ full
system.cpu.rename.RenamedOperands             7772385                       # Number of destination operands rename has renamed
system.cpu.rename.RenameLookups              13390097                       # Number of register rename lookups that rename has made
system.cpu.rename.int_rename_lookups         13389817                       # Number of integer rename lookups
system.cpu.rename.fp_rename_lookups               280                       # Number of floating rename lookups
system.cpu.rename.CommittedMaps               7323412                       # Number of HB maps that are committed
system.cpu.rename.UndoneMaps                   448949                       # Number of HB maps that are undone due to squashing
system.cpu.rename.serializingInsts                163                       # count of serializing insts renamed
system.cpu.rename.tempSerializingInsts             87                       # count of temporary serializing insts renamed
system.cpu.rename.skidInsts                    889302                       # count of insts added to the skid buffer
system.cpu.memDep0.insertedLoads              4002138                       # Number of loads inserted to the mem dependence unit.
system.cpu.memDep0.insertedStores             1512367                       # Number of stores inserted to the mem dependence unit.
system.cpu.memDep0.conflictingLoads            678036                       # Number of conflicting loads.
system.cpu.memDep0.conflictingStores           123846                       # Number of conflicting stores.
system.cpu.iq.iqInstsAdded                   10517257                       # Number of instructions added to the IQ (excludes non-spec)
system.cpu.iq.iqNonSpecInstsAdded                 133                       # Number of non-speculative instructions added to the IQ
system.cpu.iq.iqInstsIssued                  10396707                       # Number of instructions issued
system.cpu.iq.iqSquashedInstsIssued              1634                       # Number of squashed instructions issued
system.cpu.iq.iqSquashedInstsExamined          516075                       # Number of squashed instructions iterated over during squash; mainly for profiling
system.cpu.iq.iqSquashedOperandsExamined       235772                       # Number of squashed operands that are examined and possibly removed from graph
system.cpu.iq.iqSquashedNonSpecRemoved             35                       # Number of squashed non-spec instructions that were removed
system.cpu.iq.issued_per_cycle::samples       4691078                       # Number of insts issued each cycle
system.cpu.iq.issued_per_cycle::mean         2.216272                       # Number of insts issued each cycle
system.cpu.iq.issued_per_cycle::stdev        1.825090                       # Number of insts issued each cycle
system.cpu.iq.issued_per_cycle::underflows            0      0.00%      0.00% # Number of insts issued each cycle
system.cpu.iq.issued_per_cycle::0             1061775     22.63%     22.63% # Number of insts issued each cycle
system.cpu.iq.issued_per_cycle::1              888769     18.95%     41.58% # Number of insts issued each cycle
system.cpu.iq.issued_per_cycle::2              746808     15.92%     57.50% # Number of insts issued each cycle
system.cpu.iq.issued_per_cycle::3              858398     18.30%     75.80% # Number of insts issued each cycle
system.cpu.iq.issued_per_cycle::4              604485     12.89%     88.68% # Number of insts issued each cycle
system.cpu.iq.issued_per_cycle::5              205586      4.38%     93.07% # Number of insts issued each cycle
system.cpu.iq.issued_per_cycle::6              285114      6.08%     99.14% # Number of insts issued each cycle
system.cpu.iq.issued_per_cycle::7               38570      0.82%     99.97% # Number of insts issued each cycle
system.cpu.iq.issued_per_cycle::8                1573      0.03%    100.00% # Number of insts issued each cycle
system.cpu.iq.issued_per_cycle::overflows            0      0.00%    100.00% # Number of insts issued each cycle
system.cpu.iq.issued_per_cycle::min_value            0                       # Number of insts issued each cycle
system.cpu.iq.issued_per_cycle::max_value            8                       # Number of insts issued each cycle
system.cpu.iq.issued_per_cycle::total         4691078                       # Number of insts issued each cycle
system.cpu.iq.fu_full::No_OpClass                   0      0.00%      0.00% # attempts to use FU when none available
system.cpu.iq.fu_full::IntAlu                      23      0.09%      0.09% # attempts to use FU when none available
system.cpu.iq.fu_full::IntMult                      0      0.00%      0.09% # attempts to use FU when none available
system.cpu.iq.fu_full::IntDiv                       0      0.00%      0.09% # attempts to use FU when none available
system.cpu.iq.fu_full::FloatAdd                     0      0.00%      0.09% # attempts to use FU when none available
system.cpu.iq.fu_full::FloatCmp                     0      0.00%      0.09% # attempts to use FU when none available
system.cpu.iq.fu_full::FloatCvt                     0      0.00%      0.09% # attempts to use FU when none available
system.cpu.iq.fu_full::FloatMult                    0      0.00%      0.09% # attempts to use FU when none available
system.cpu.iq.fu_full::FloatDiv                     0      0.00%      0.09% # attempts to use FU when none available
system.cpu.iq.fu_full::FloatSqrt                    0      0.00%      0.09% # attempts to use FU when none available
system.cpu.iq.fu_full::SimdAdd                      0      0.00%      0.09% # attempts to use FU when none available
system.cpu.iq.fu_full::SimdAddAcc                   0      0.00%      0.09% # attempts to use FU when none available
system.cpu.iq.fu_full::SimdAlu                      0      0.00%      0.09% # attempts to use FU when none available
system.cpu.iq.fu_full::SimdCmp                      0      0.00%      0.09% # attempts to use FU when none available
system.cpu.iq.fu_full::SimdCvt                      0      0.00%      0.09% # attempts to use FU when none available
system.cpu.iq.fu_full::SimdMisc                     0      0.00%      0.09% # attempts to use FU when none available
system.cpu.iq.fu_full::SimdMult                     0      0.00%      0.09% # attempts to use FU when none available
system.cpu.iq.fu_full::SimdMultAcc                  0      0.00%      0.09% # attempts to use FU when none available
system.cpu.iq.fu_full::SimdShift                    0      0.00%      0.09% # attempts to use FU when none available
system.cpu.iq.fu_full::SimdShiftAcc                 0      0.00%      0.09% # attempts to use FU when none available
system.cpu.iq.fu_full::SimdSqrt                     0      0.00%      0.09% # attempts to use FU when none available
system.cpu.iq.fu_full::SimdFloatAdd                 0      0.00%      0.09% # attempts to use FU when none available
system.cpu.iq.fu_full::SimdFloatAlu                 0      0.00%      0.09% # attempts to use FU when none available
system.cpu.iq.fu_full::SimdFloatCmp                 0      0.00%      0.09% # attempts to use FU when none available
system.cpu.iq.fu_full::SimdFloatCvt                 0      0.00%      0.09% # attempts to use FU when none available
system.cpu.iq.fu_full::SimdFloatDiv                 0      0.00%      0.09% # attempts to use FU when none available
system.cpu.iq.fu_full::SimdFloatMisc                0      0.00%      0.09% # attempts to use FU when none available
system.cpu.iq.fu_full::SimdFloatMult                0      0.00%      0.09% # attempts to use FU when none available
system.cpu.iq.fu_full::SimdFloatMultAcc             0      0.00%      0.09% # attempts to use FU when none available
system.cpu.iq.fu_full::SimdFloatSqrt                0      0.00%      0.09% # attempts to use FU when none available
system.cpu.iq.fu_full::MemRead                  22250     90.36%     90.45% # attempts to use FU when none available
[...]
system.cpu.dcache.StoreCondReq_accesses::cpu.data           34                       # number of StoreCondReq accesses(hits+misses)
system.cpu.dcache.StoreCondReq_accesses::total           34                       # number of StoreCondReq accesses(hits+misses)
<<<<<<< Updated upstream
system.cpu.dcache.demand_accesses::cpu.data      2965610                       # number of demand (read+write) accesses
system.cpu.dcache.demand_accesses::total      2965610                       # number of demand (read+write) accesses
system.cpu.dcache.overall_accesses::cpu.data      2965610                       # number of overall (read+write) accesses
system.cpu.dcache.overall_accesses::total      2965610                       # number of overall (read+write) accesses
system.cpu.dcache.ReadReq_miss_rate::cpu.data     0.008595                       # miss rate for ReadReq accesses
system.cpu.dcache.ReadReq_miss_rate::total     0.008595                       # miss rate for ReadReq accesses
system.cpu.dcache.WriteReq_miss_rate::cpu.data     0.014134                       # miss rate for WriteReq accesses
system.cpu.dcache.WriteReq_miss_rate::total     0.014134                       # miss rate for WriteReq accesses
system.cpu.dcache.LoadLockedReq_miss_rate::cpu.data     0.176471                       # miss rate for LoadLockedReq accesses
system.cpu.dcache.LoadLockedReq_miss_rate::total     0.176471                       # miss rate for LoadLockedReq accesses
system.cpu.dcache.demand_miss_rate::cpu.data     0.010326                       # miss rate for demand accesses
system.cpu.dcache.demand_miss_rate::total     0.010326                       # miss rate for demand accesses
system.cpu.dcache.overall_miss_rate::cpu.data     0.010326                       # miss rate for overall accesses
system.cpu.dcache.overall_miss_rate::total     0.010326                       # miss rate for overall accesses
system.cpu.dcache.ReadReq_avg_miss_latency::cpu.data 53666.134094                       # average ReadReq miss latency
system.cpu.dcache.ReadReq_avg_miss_latency::total 53666.134094                       # average ReadReq miss latency
system.cpu.dcache.WriteReq_avg_miss_latency::cpu.data 51842.621574                       # average WriteReq miss latency
system.cpu.dcache.WriteReq_avg_miss_latency::total 51842.621574                       # average WriteReq miss latency
system.cpu.dcache.LoadLockedReq_avg_miss_latency::cpu.data 44666.666667                       # average LoadLockedReq miss latency
system.cpu.dcache.LoadLockedReq_avg_miss_latency::total 44666.666667                       # average LoadLockedReq miss latency
system.cpu.dcache.demand_avg_miss_latency::cpu.data 52886.151385                       # average overall miss latency
system.cpu.dcache.demand_avg_miss_latency::total 52886.151385                       # average overall miss latency
system.cpu.dcache.overall_avg_miss_latency::cpu.data 52886.151385                       # average overall miss latency
system.cpu.dcache.overall_avg_miss_latency::total 52886.151385                       # average overall miss latency
=======
system.cpu.dcache.demand_accesses::cpu.data      4622547                       # number of demand (read+write) accesses
system.cpu.dcache.demand_accesses::total      4622547                       # number of demand (read+write) accesses
system.cpu.dcache.overall_accesses::cpu.data      4622547                       # number of overall (read+write) accesses
system.cpu.dcache.overall_accesses::total      4622547                       # number of overall (read+write) accesses
system.cpu.dcache.ReadReq_miss_rate::cpu.data     0.008534                       # miss rate for ReadReq accesses
system.cpu.dcache.ReadReq_miss_rate::total     0.008534                       # miss rate for ReadReq accesses
system.cpu.dcache.WriteReq_miss_rate::cpu.data     0.012747                       # miss rate for WriteReq accesses
system.cpu.dcache.WriteReq_miss_rate::total     0.012747                       # miss rate for WriteReq accesses
system.cpu.dcache.LoadLockedReq_miss_rate::cpu.data     0.176471                       # miss rate for LoadLockedReq accesses
system.cpu.dcache.LoadLockedReq_miss_rate::total     0.176471                       # miss rate for LoadLockedReq accesses
system.cpu.dcache.demand_miss_rate::cpu.data     0.009848                       # miss rate for demand accesses
system.cpu.dcache.demand_miss_rate::total     0.009848                       # miss rate for demand accesses
system.cpu.dcache.overall_miss_rate::cpu.data     0.009848                       # miss rate for overall accesses
system.cpu.dcache.overall_miss_rate::total     0.009848                       # miss rate for overall accesses
system.cpu.dcache.ReadReq_avg_miss_latency::cpu.data 53244.171485                       # average ReadReq miss latency
system.cpu.dcache.ReadReq_avg_miss_latency::total 53244.171485                       # average ReadReq miss latency
system.cpu.dcache.WriteReq_avg_miss_latency::cpu.data 47970.660280                       # average WriteReq miss latency
system.cpu.dcache.WriteReq_avg_miss_latency::total 47970.660280                       # average WriteReq miss latency
system.cpu.dcache.LoadLockedReq_avg_miss_latency::cpu.data        44750                       # average LoadLockedReq miss latency
system.cpu.dcache.LoadLockedReq_avg_miss_latency::total        44750                       # average LoadLockedReq miss latency
system.cpu.dcache.demand_avg_miss_latency::cpu.data 51115.976890                       # average overall miss latency
system.cpu.dcache.demand_avg_miss_latency::total 51115.976890                       # average overall miss latency
system.cpu.dcache.overall_avg_miss_latency::cpu.data 51115.976890                       # average overall miss latency
system.cpu.dcache.overall_avg_miss_latency::total 51115.976890                       # average overall miss latency
>>>>>>> Stashed changes
system.cpu.dcache.blocked_cycles::no_mshrs            0                       # number of cycles access was blocked
system.cpu.dcache.blocked_cycles::no_targets       128500                       # number of cycles access was blocked
system.cpu.dcache.blocked::no_mshrs                 0                       # number of cycles access was blocked
system.cpu.dcache.blocked::no_targets               3                       # number of cycles access was blocked
system.cpu.dcache.avg_blocked_cycles::no_mshrs          nan                       # average number of cycles each access was blocked
system.cpu.dcache.avg_blocked_cycles::no_targets 42833.333333                       # average number of cycles each access was blocked
system.cpu.dcache.fast_writes                       0                       # number of fast writes performed
system.cpu.dcache.cache_copies                      0                       # number of cache copies performed
<<<<<<< Updated upstream
system.cpu.dcache.writebacks::writebacks         5804                       # number of writebacks
system.cpu.dcache.writebacks::total              5804                       # number of writebacks
system.cpu.dcache.ReadReq_mshr_hits::cpu.data        13617                       # number of ReadReq MSHR hits
system.cpu.dcache.ReadReq_mshr_hits::total        13617                       # number of ReadReq MSHR hits
system.cpu.dcache.WriteReq_mshr_hits::cpu.data         7726                       # number of WriteReq MSHR hits
system.cpu.dcache.WriteReq_mshr_hits::total         7726                       # number of WriteReq MSHR hits
system.cpu.dcache.LoadLockedReq_mshr_hits::cpu.data            2                       # number of LoadLockedReq MSHR hits
system.cpu.dcache.LoadLockedReq_mshr_hits::total            2                       # number of LoadLockedReq MSHR hits
system.cpu.dcache.demand_mshr_hits::cpu.data        21343                       # number of demand (read+write) MSHR hits
system.cpu.dcache.demand_mshr_hits::total        21343                       # number of demand (read+write) MSHR hits
system.cpu.dcache.overall_mshr_hits::cpu.data        21343                       # number of overall MSHR hits
system.cpu.dcache.overall_mshr_hits::total        21343                       # number of overall MSHR hits
system.cpu.dcache.ReadReq_mshr_misses::cpu.data         3908                       # number of ReadReq MSHR misses
system.cpu.dcache.ReadReq_mshr_misses::total         3908                       # number of ReadReq MSHR misses
system.cpu.dcache.WriteReq_mshr_misses::cpu.data         5373                       # number of WriteReq MSHR misses
system.cpu.dcache.WriteReq_mshr_misses::total         5373                       # number of WriteReq MSHR misses
system.cpu.dcache.LoadLockedReq_mshr_misses::cpu.data            4                       # number of LoadLockedReq MSHR misses
system.cpu.dcache.LoadLockedReq_mshr_misses::total            4                       # number of LoadLockedReq MSHR misses
system.cpu.dcache.demand_mshr_misses::cpu.data         9281                       # number of demand (read+write) MSHR misses
system.cpu.dcache.demand_mshr_misses::total         9281                       # number of demand (read+write) MSHR misses
system.cpu.dcache.overall_mshr_misses::cpu.data         9281                       # number of overall MSHR misses
system.cpu.dcache.overall_mshr_misses::total         9281                       # number of overall MSHR misses
system.cpu.dcache.ReadReq_mshr_miss_latency::cpu.data    199080500                       # number of ReadReq MSHR miss cycles
system.cpu.dcache.ReadReq_mshr_miss_latency::total    199080500                       # number of ReadReq MSHR miss cycles
system.cpu.dcache.WriteReq_mshr_miss_latency::cpu.data    352217000                       # number of WriteReq MSHR miss cycles
system.cpu.dcache.WriteReq_mshr_miss_latency::total    352217000                       # number of WriteReq MSHR miss cycles
system.cpu.dcache.LoadLockedReq_mshr_miss_latency::cpu.data       171000                       # number of LoadLockedReq MSHR miss cycles
system.cpu.dcache.LoadLockedReq_mshr_miss_latency::total       171000                       # number of LoadLockedReq MSHR miss cycles
system.cpu.dcache.demand_mshr_miss_latency::cpu.data    551297500                       # number of demand (read+write) MSHR miss cycles
system.cpu.dcache.demand_mshr_miss_latency::total    551297500                       # number of demand (read+write) MSHR miss cycles
system.cpu.dcache.overall_mshr_miss_latency::cpu.data    551297500                       # number of overall MSHR miss cycles
system.cpu.dcache.overall_mshr_miss_latency::total    551297500                       # number of overall MSHR miss cycles
system.cpu.dcache.ReadReq_mshr_miss_rate::cpu.data     0.001917                       # mshr miss rate for ReadReq accesses
system.cpu.dcache.ReadReq_mshr_miss_rate::total     0.001917                       # mshr miss rate for ReadReq accesses
system.cpu.dcache.WriteReq_mshr_miss_rate::cpu.data     0.005798                       # mshr miss rate for WriteReq accesses
system.cpu.dcache.WriteReq_mshr_miss_rate::total     0.005798                       # mshr miss rate for WriteReq accesses
system.cpu.dcache.LoadLockedReq_mshr_miss_rate::cpu.data     0.117647                       # mshr miss rate for LoadLockedReq accesses
system.cpu.dcache.LoadLockedReq_mshr_miss_rate::total     0.117647                       # mshr miss rate for LoadLockedReq accesses
system.cpu.dcache.demand_mshr_miss_rate::cpu.data     0.003130                       # mshr miss rate for demand accesses
system.cpu.dcache.demand_mshr_miss_rate::total     0.003130                       # mshr miss rate for demand accesses
system.cpu.dcache.overall_mshr_miss_rate::cpu.data     0.003130                       # mshr miss rate for overall accesses
system.cpu.dcache.overall_mshr_miss_rate::total     0.003130                       # mshr miss rate for overall accesses
system.cpu.dcache.ReadReq_avg_mshr_miss_latency::cpu.data 50941.786080                       # average ReadReq mshr miss latency
system.cpu.dcache.ReadReq_avg_mshr_miss_latency::total 50941.786080                       # average ReadReq mshr miss latency
system.cpu.dcache.WriteReq_avg_mshr_miss_latency::cpu.data 65553.136051                       # average WriteReq mshr miss latency
system.cpu.dcache.WriteReq_avg_mshr_miss_latency::total 65553.136051                       # average WriteReq mshr miss latency
system.cpu.dcache.LoadLockedReq_avg_mshr_miss_latency::cpu.data        42750                       # average LoadLockedReq mshr miss latency
system.cpu.dcache.LoadLockedReq_avg_mshr_miss_latency::total        42750                       # average LoadLockedReq mshr miss latency
system.cpu.dcache.demand_avg_mshr_miss_latency::cpu.data 59400.657257                       # average overall mshr miss latency
system.cpu.dcache.demand_avg_mshr_miss_latency::total 59400.657257                       # average overall mshr miss latency
system.cpu.dcache.overall_avg_mshr_miss_latency::cpu.data 59400.657257                       # average overall mshr miss latency
system.cpu.dcache.overall_avg_mshr_miss_latency::total 59400.657257                       # average overall mshr miss latency
=======
system.cpu.dcache.writebacks::writebacks         7324                       # number of writebacks
system.cpu.dcache.writebacks::total              7324                       # number of writebacks
system.cpu.dcache.ReadReq_mshr_hits::cpu.data        21693                       # number of ReadReq MSHR hits
system.cpu.dcache.ReadReq_mshr_hits::total        21693                       # number of ReadReq MSHR hits
system.cpu.dcache.WriteReq_mshr_hits::cpu.data        11791                       # number of WriteReq MSHR hits
system.cpu.dcache.WriteReq_mshr_hits::total        11791                       # number of WriteReq MSHR hits
system.cpu.dcache.LoadLockedReq_mshr_hits::cpu.data            2                       # number of LoadLockedReq MSHR hits
system.cpu.dcache.LoadLockedReq_mshr_hits::total            2                       # number of LoadLockedReq MSHR hits
system.cpu.dcache.demand_mshr_hits::cpu.data        33484                       # number of demand (read+write) MSHR hits
system.cpu.dcache.demand_mshr_hits::total        33484                       # number of demand (read+write) MSHR hits
system.cpu.dcache.overall_mshr_hits::cpu.data        33484                       # number of overall MSHR hits
system.cpu.dcache.overall_mshr_hits::total        33484                       # number of overall MSHR hits
system.cpu.dcache.ReadReq_mshr_misses::cpu.data         5458                       # number of ReadReq MSHR misses
system.cpu.dcache.ReadReq_mshr_misses::total         5458                       # number of ReadReq MSHR misses
system.cpu.dcache.WriteReq_mshr_misses::cpu.data         6580                       # number of WriteReq MSHR misses
system.cpu.dcache.WriteReq_mshr_misses::total         6580                       # number of WriteReq MSHR misses
system.cpu.dcache.LoadLockedReq_mshr_misses::cpu.data            4                       # number of LoadLockedReq MSHR misses
system.cpu.dcache.LoadLockedReq_mshr_misses::total            4                       # number of LoadLockedReq MSHR misses
system.cpu.dcache.demand_mshr_misses::cpu.data        12038                       # number of demand (read+write) MSHR misses
system.cpu.dcache.demand_mshr_misses::total        12038                       # number of demand (read+write) MSHR misses
system.cpu.dcache.overall_mshr_misses::cpu.data        12038                       # number of overall MSHR misses
system.cpu.dcache.overall_mshr_misses::total        12038                       # number of overall MSHR misses
system.cpu.dcache.ReadReq_mshr_miss_latency::cpu.data    262764500                       # number of ReadReq MSHR miss cycles
system.cpu.dcache.ReadReq_mshr_miss_latency::total    262764500                       # number of ReadReq MSHR miss cycles
system.cpu.dcache.WriteReq_mshr_miss_latency::cpu.data    401652500                       # number of WriteReq MSHR miss cycles
system.cpu.dcache.WriteReq_mshr_miss_latency::total    401652500                       # number of WriteReq MSHR miss cycles
system.cpu.dcache.LoadLockedReq_mshr_miss_latency::cpu.data       171500                       # number of LoadLockedReq MSHR miss cycles
system.cpu.dcache.LoadLockedReq_mshr_miss_latency::total       171500                       # number of LoadLockedReq MSHR miss cycles
system.cpu.dcache.demand_mshr_miss_latency::cpu.data    664417000                       # number of demand (read+write) MSHR miss cycles
system.cpu.dcache.demand_mshr_miss_latency::total    664417000                       # number of demand (read+write) MSHR miss cycles
system.cpu.dcache.overall_mshr_miss_latency::cpu.data    664417000                       # number of overall MSHR miss cycles
system.cpu.dcache.overall_mshr_miss_latency::total    664417000                       # number of overall MSHR miss cycles
system.cpu.dcache.ReadReq_mshr_miss_rate::cpu.data     0.001716                       # mshr miss rate for ReadReq accesses
system.cpu.dcache.ReadReq_mshr_miss_rate::total     0.001716                       # mshr miss rate for ReadReq accesses
system.cpu.dcache.WriteReq_mshr_miss_rate::cpu.data     0.004566                       # mshr miss rate for WriteReq accesses
system.cpu.dcache.WriteReq_mshr_miss_rate::total     0.004566                       # mshr miss rate for WriteReq accesses
system.cpu.dcache.LoadLockedReq_mshr_miss_rate::cpu.data     0.117647                       # mshr miss rate for LoadLockedReq accesses
system.cpu.dcache.LoadLockedReq_mshr_miss_rate::total     0.117647                       # mshr miss rate for LoadLockedReq accesses
system.cpu.dcache.demand_mshr_miss_rate::cpu.data     0.002604                       # mshr miss rate for demand accesses
system.cpu.dcache.demand_mshr_miss_rate::total     0.002604                       # mshr miss rate for demand accesses
system.cpu.dcache.overall_mshr_miss_rate::cpu.data     0.002604                       # mshr miss rate for overall accesses
system.cpu.dcache.overall_mshr_miss_rate::total     0.002604                       # mshr miss rate for overall accesses
system.cpu.dcache.ReadReq_avg_mshr_miss_latency::cpu.data 48143.001099                       # average ReadReq mshr miss latency
system.cpu.dcache.ReadReq_avg_mshr_miss_latency::total 48143.001099                       # average ReadReq mshr miss latency
system.cpu.dcache.WriteReq_avg_mshr_miss_latency::cpu.data 61041.413374                       # average WriteReq mshr miss latency
system.cpu.dcache.WriteReq_avg_mshr_miss_latency::total 61041.413374                       # average WriteReq mshr miss latency
system.cpu.dcache.LoadLockedReq_avg_mshr_miss_latency::cpu.data        42875                       # average LoadLockedReq mshr miss latency
system.cpu.dcache.LoadLockedReq_avg_mshr_miss_latency::total        42875                       # average LoadLockedReq mshr miss latency
system.cpu.dcache.demand_avg_mshr_miss_latency::cpu.data 55193.304536                       # average overall mshr miss latency
system.cpu.dcache.demand_avg_mshr_miss_latency::total 55193.304536                       # average overall mshr miss latency
system.cpu.dcache.overall_avg_mshr_miss_latency::cpu.data 55193.304536                       # average overall mshr miss latency
system.cpu.dcache.overall_avg_mshr_miss_latency::total 55193.304536                       # average overall mshr miss latency
>>>>>>> Stashed changes
system.cpu.dcache.no_allocate_misses                0                       # Number of misses that were no-allocate

---------- End Simulation Statistics   ----------
