

Running perlbench
gem5 Simulator System.  http://gem5.org
gem5 is copyrighted software; use the --copyright option for details.

gem5 compiled Nov  9 2019 16:38:31
gem5 started Nov 10 2019 15:40:45
gem5 executing on qstruct.ecn.purdue.edu
command line: ./build/ALPHA_MESI_CMP_directory/gem5.opt -d benchmarks/default/perlbench configs/spec2k6/run.py --cpu-type=detailed --caches --l2cache --l1d_size=16kB --l1i_size=16kB --l2_size=1MB --l2_assoc=16 -b perlbench --maxinsts=10000000
/home/min/a/abhaumic/gem5/configs/spec2k6
/home/min/a/abhaumic/gem5/configs
/home/min/a/abhaumic/gem5
Global frequency set at 1000000000000 ticks per second
End of O3 Constructor
0: system.remote_gdb.listener: listening for remote gdb #0 on port 7001
**** REAL SIMULATION ****
info: Entering event queue @ 0.  Starting simulation...
info: Increasing stack size by one page.
warn: Prefetch instructions in Alpha do not do anything
Can't open perl script "attrs.pl": No such file or directory
hack: be nice to actually delete the event here
Exiting @ tick 125862500 because target called exit()


Running bzip2
gem5 Simulator System.  http://gem5.org
gem5 is copyrighted software; use the --copyright option for details.

gem5 compiled Nov  9 2019 16:38:31
gem5 started Nov 10 2019 15:40:46
gem5 executing on qstruct.ecn.purdue.edu
command line: ./build/ALPHA_MESI_CMP_directory/gem5.opt -d benchmarks/default/bzip2 configs/spec2k6/run.py --cpu-type=detailed --caches --l2cache --l1d_size=16kB --l1i_size=16kB --l2_size=1MB --l2_assoc=16 -b bzip2 --maxinsts=10000000
/home/min/a/abhaumic/gem5/configs/spec2k6
/home/min/a/abhaumic/gem5/configs
/home/min/a/abhaumic/gem5
Global frequency set at 1000000000000 ticks per second
End of O3 Constructor
0: system.remote_gdb.listener: listening for remote gdb #0 on port 7001
**** REAL SIMULATION ****
info: Entering event queue @ 0.  Starting simulation...
info: Increasing stack size by one page.
warn: Prefetch instructions in Alpha do not do anything
